# CIF file
# This file was generated by FINDSYM
# Harold T. Stokes, Branton J. Campbell, Dorian M. Hatch
# Brigham Young University, Provo, Utah, USA
 
data_findsym-output
 
_symmetry_space_group_name_H-M 'P 1'
_symmetry_Int_Tables_number 1
 
_cell_length_a      15.04500
_cell_length_b      15.06900
_cell_length_c      15.05600
_cell_angle_alpha   90.06800
_cell_angle_beta    90.25900
_cell_angle_gamma   90.03500
 
loop_
_space_group_symop_operation_xyz
x,y,z
 
loop_
_atom_site_label
_atom_site_type_symbol
_atom_site_fract_x
_atom_site_fract_y
_atom_site_fract_z
_atom_site_occupancy
F1  F   -0.37552   0.02709   0.01569   1.00000
F2  F    0.12494  -0.48382  -0.01201   1.00000
F3  F   -0.37402  -0.48392  -0.01565   1.00000
F4  F    0.12494  -0.02023  -0.47641   1.00000
F5  F   -0.37593  -0.01636  -0.48041   1.00000
F6  F    0.12787   0.48404   0.48000   1.00000
F7  F    0.37517  -0.01625  -0.01627   1.00000
F8  F   -0.12535  -0.01223  -0.01615   1.00000
F9  F    0.37571   0.02734   0.48057   1.00000
F10 F  -0.12432   0.02351   0.48072   1.00000
F11 F   0.37943  -0.48002  -0.48040   1.00000
F12 F  -0.12120  -0.48367  -0.47972   1.00000
F13 F   0.12395   0.23410   0.01195   1.00000
F14 F  -0.37829   0.23397   0.01217   1.00000
F15 F   0.12453  -0.26148  -0.01213   1.00000
F16 F  -0.37139  -0.26981  -0.00840   1.00000
F17 F   0.12598   0.27404  -0.48727   1.00000
F18 F  -0.37767   0.26963  -0.47632   1.00000
F19 F   0.37505   0.22262   0.48080   1.00000
F20 F  -0.12531   0.23038   0.48396   1.00000
F21 F   0.37935  -0.26209  -0.48808   1.00000
F22 F  -0.12229  -0.26223  -0.48052   1.00000
F23 F  -0.37865   0.01963  -0.26243   1.00000
F24 F   0.12505  -0.48008  -0.24176   1.00000
F25 F  -0.37525  -0.48735  -0.24143   1.00000
F26 F   0.12518   0.00800   0.22630   1.00000
F27 F  -0.37454   0.01243   0.24180   1.00000
F28 F   0.12751  -0.47675   0.26193   1.00000
F29 F  -0.37068  -0.48405   0.27331   1.00000
F30 F   0.37405  -0.01990  -0.22589   1.00000
F31 F  -0.12620  -0.01919  -0.22643   1.00000
F32 F  -0.12169   0.47664   0.23033   1.00000
F33 F   0.12319   0.22624  -0.26621   1.00000
F34 F  -0.38044   0.23373  -0.27005   1.00000
F35 F   0.12485  -0.25847  -0.23816   1.00000
F36 F  -0.37509  -0.26247  -0.23439   1.00000
F37 F   0.12556   0.23815   0.23794   1.00000
F38 F  -0.37489   0.23470   0.23847   1.00000
F39 F   0.37154   0.27327  -0.22256   1.00000
F40 F  -0.12802   0.27419  -0.23024   1.00000
F41 F   0.37989  -0.23008   0.23787   1.00000
F42 F  -0.12226  -0.22972   0.22996   1.00000
F43 F   0.01571   0.02016  -0.12227   1.00000
F44 F  -0.48794   0.02035  -0.12401   1.00000
F45 F  -0.01196  -0.48373  -0.12574   1.00000
F46 F  -0.48374   0.01934   0.37894   1.00000
F47 F   0.48380  -0.47697   0.37387   1.00000
F48 F   0.23410   0.02008  -0.12188   1.00000
F49 F  -0.27004  -0.01578  -0.12182   1.00000
F50 F  -0.24203   0.47683  -0.12552   1.00000
F51 F   0.22665   0.01983   0.37496   1.00000
F52 F  -0.26590  -0.01558   0.37833   1.00000
F53 F  -0.22270   0.48007   0.37469   1.00000
F54 F   0.01211   0.23423  -0.12559   1.00000
F55 F  -0.48764   0.23446  -0.12650   1.00000
F56 F  -0.01228  -0.26622  -0.12562   1.00000
F57 F   0.49206  -0.27316  -0.12499   1.00000
F58 F   0.01566   0.23402   0.37523   1.00000
F59 F  -0.48356   0.23370   0.37915   1.00000
F60 F  -0.02308  -0.26600   0.37235   1.00000
F61 F   0.48458  -0.26982   0.37464   1.00000
F62 F   0.23072   0.23047  -0.12476   1.00000
F63 F   0.25852  -0.26256  -0.12538   1.00000
F64 F  -0.24169  -0.22284  -0.12387   1.00000
F65 F   0.23369   0.23400   0.37572   1.00000
F66 F   0.27014  -0.26598   0.37129   1.00000
F67 F  -0.22244  -0.22625   0.37455   1.00000
F68 F  -0.02348  -0.01951  -0.37464   1.00000
F69 F   0.01927   0.47697  -0.37864   1.00000
F70 F  -0.48007   0.48385  -0.37831   1.00000
F71 F  -0.01935  -0.01982   0.12444   1.00000
F72 F   0.01951   0.47690   0.12473   1.00000
F73 F  -0.47209   0.47985   0.12521   1.00000
F74 F   0.23390   0.49186  -0.37913   1.00000
F75 F  -0.26572  -0.47621  -0.37768   1.00000
F76 F   0.26956  -0.02403   0.12522   1.00000
F77 F   0.23077   0.48814   0.12530   1.00000
F78 F   0.02000  -0.22282  -0.37609   1.00000
F79 F   0.01979  -0.22252   0.12388   1.00000
F80 F  -0.48036  -0.23003   0.12574   1.00000
F81 F  -0.23424   0.23325  -0.37431   1.00000
F82 F  -0.26622  -0.26976  -0.37519   1.00000
F83 F   0.25844   0.27389   0.12534   1.00000
F84 F  -0.24149   0.23457   0.12540   1.00000
F85 F  -0.25812  -0.27664   0.12563   1.00000
F86 F  -0.01978   0.12525   0.01600   1.00000
F87 F   0.47951   0.12532   0.01565   1.00000
F88 F   0.48867  -0.37454   0.02391   1.00000
F89 F  -0.48046   0.12542  -0.47947   1.00000
F90 F  -0.48047  -0.37441  -0.48410   1.00000
F91 F  -0.23728   0.12740  -0.01957   1.00000
F92 F   0.26242  -0.37240   0.01631   1.00000
F93 F  -0.23058  -0.37361  -0.02412   1.00000
F94 F   0.23020   0.12623  -0.48777   1.00000
F95 F  -0.27042   0.12589   0.48815   1.00000
F96 F   0.23788  -0.37378  -0.49170   1.00000
F97 F  -0.25392  -0.37490   0.47686   1.00000
F98 F   0.01998   0.37680  -0.02026   1.00000
F99 F  -0.48046   0.37595  -0.01952   1.00000
F100 F   0.01593  -0.12143  -0.01997   1.00000
F101 F  -0.01584   0.37513   0.48003   1.00000
F102 F  -0.01655  -0.12153   0.48324   1.00000
F103 F   0.48394  -0.12128   0.47685   1.00000
F104 F   0.22987   0.37514  -0.01609   1.00000
F105 F  -0.26994   0.37834   0.02355   1.00000
F106 F   0.23389  -0.12109  -0.01963   1.00000
F107 F   0.48858  -0.37305  -0.27396   1.00000
F108 F  -0.01168   0.12535   0.23074   1.00000
F109 F   0.48752   0.12559   0.23801   1.00000
F110 F   0.27417   0.12551  -0.25444   1.00000
F111 F   0.26259  -0.37177  -0.26911   1.00000
F112 F  -0.23845   0.12605   0.27362   1.00000
F113 F   0.27347  -0.37486   0.22985   1.00000
F114 F   0.01969   0.37516  -0.23359   1.00000
F115 F  -0.48398   0.37527  -0.23386   1.00000
F116 F   0.01550  -0.12045  -0.23047   1.00000
F117 F  -0.48068  -0.12173  -0.22673   1.00000
F118 F   0.01989   0.37837   0.26983   1.00000
F119 F  -0.47657   0.37629   0.27353   1.00000
F120 F   0.01652  -0.12536   0.26961   1.00000
F121 F  -0.48062  -0.12572   0.27363   1.00000
F122 F  -0.26940   0.37482  -0.27326   1.00000
F123 F   0.23354  -0.12058  -0.22978   1.00000
F124 F  -0.26988  -0.12416  -0.26609   1.00000
F125 F   0.23002   0.37564   0.26561   1.00000
F126 F  -0.26642   0.37824   0.23358   1.00000
F127 F   0.23416  -0.12443   0.26992   1.00000
F128 F  -0.26201  -0.12545   0.23360   1.00000
O1  O    0.12468   0.01629   0.02289   1.00000
O2  O   -0.37176   0.48479   0.47806   1.00000
O3  O    0.37616   0.48379   0.01841   1.00000
O4  O   -0.12474   0.48446   0.01205   1.00000
O5  O    0.12709  -0.23292   0.47677   1.00000
O6  O   -0.37044  -0.23461   0.48058   1.00000
O7  O    0.37390   0.26810  -0.01646   1.00000
O8  O   -0.12646   0.26909  -0.01352   1.00000
O9  O    0.37788  -0.23118   0.00813   1.00000
O10 O  -0.12416  -0.23110   0.01202   1.00000
O11 O   0.12391   0.01937  -0.27030   1.00000
O12 O   0.37430   0.48392  -0.26934   1.00000
O13 O  -0.12543   0.48392  -0.26549   1.00000
O14 O   0.37576  -0.01276   0.27098   1.00000
O15 O  -0.12191  -0.01173   0.27014   1.00000
O16 O   0.37934   0.47687   0.23098   1.00000
O17 O   0.12545  -0.26924   0.26214   1.00000
O18 O  -0.37044  -0.26590   0.26591   1.00000
O19 O   0.37814  -0.23051  -0.25827   1.00000
O20 O  -0.12426  -0.23074  -0.26399   1.00000
O21 O   0.37470   0.26611   0.26738   1.00000
O22 O  -0.12557   0.26534   0.26510   1.00000
O23 O   0.48134  -0.48021  -0.12625   1.00000
O24 O   0.02369   0.02052   0.37678   1.00000
O25 O  -0.01562  -0.47681   0.37305   1.00000
O26 O   0.26581  -0.48503  -0.12543   1.00000
O27 O   0.26994  -0.48601   0.37201   1.00000
O28 O  -0.27245   0.27268  -0.12338   1.00000
O29 O  -0.26635   0.26958   0.37952   1.00000
O30 O   0.48077  -0.01637  -0.37484   1.00000
O31 O   0.48859  -0.01912   0.12820   1.00000
O32 O   0.27098  -0.01142  -0.37386   1.00000
O33 O  -0.23376   0.01882  -0.36994   1.00000
O34 O  -0.23348   0.01930   0.12955   1.00000
O35 O  -0.26157  -0.47325   0.12598   1.00000
O36 O  -0.01610   0.26915  -0.37330   1.00000
O37 O   0.47585   0.26763  -0.37426   1.00000
O38 O  -0.48111  -0.22606  -0.37659   1.00000
O39 O  -0.01047   0.27124   0.12601   1.00000
O40 O   0.48774   0.26977   0.12638   1.00000
O41 O   0.26882   0.26055  -0.37272   1.00000
O42 O   0.23860  -0.23058  -0.37671   1.00000
O43 O   0.23871  -0.23160   0.12479   1.00000
O44 O  -0.01285  -0.37366   0.02294   1.00000
O45 O   0.01807   0.12810  -0.47914   1.00000
O46 O   0.01981  -0.37117  -0.48393   1.00000
O47 O   0.26945   0.12629   0.02152   1.00000
O48 O  -0.47750  -0.12369  -0.01850   1.00000
O49 O   0.48005   0.37665   0.48053   1.00000
O50 O  -0.26913  -0.12182   0.02436   1.00000
O51 O   0.27296   0.37427   0.48723   1.00000
O52 O  -0.23116   0.37799  -0.48033   1.00000
O53 O   0.26994  -0.12022   0.48104   1.00000
O54 O  -0.23291  -0.12170  -0.48067   1.00000
O55 O  -0.02455   0.12426  -0.26283   1.00000
O56 O   0.47315   0.12590  -0.26428   1.00000
O57 O  -0.01195  -0.37466  -0.27306   1.00000
O58 O  -0.01653  -0.37447   0.22273   1.00000
O59 O   0.48800  -0.37620   0.22681   1.00000
O60 O  -0.23766   0.12915  -0.22751   1.00000
O61 O  -0.23422  -0.37223  -0.23056   1.00000
O62 O   0.26553   0.12485   0.23079   1.00000
O63 O  -0.22320  -0.37489   0.27263   1.00000
O64 O   0.22664   0.37533  -0.23735   1.00000
Ti1 Ti   0.01123   0.00090   0.00537   1.00000
Ti2 Ti  -0.49883  -0.01005   0.01018   1.00000
Ti3 Ti  -0.00649  -0.49229   0.00471   1.00000
Ti4 Ti   0.49140  -0.49683  -0.00952   1.00000
Ti5 Ti   0.00429   0.01491   0.49505   1.00000
Ti6 Ti   0.49856   0.00225  -0.48826   1.00000
Ti7 Ti   0.00255  -0.48444   0.49311   1.00000
Ti8 Ti  -0.48884   0.49232   0.49650   1.00000
Ti9 Ti   0.24656   0.01355   0.00293   1.00000
Ti10 Ti  -0.24752  -0.00209   0.01563   1.00000
Ti11 Ti   0.25840  -0.49970  -0.00775   1.00000
Ti12 Ti  -0.24364  -0.49398   0.00867   1.00000
Ti13 Ti   0.25307  -0.00823  -0.49417   1.00000
Ti14 Ti  -0.24616   0.00119  -0.48398   1.00000
Ti15 Ti   0.25845   0.49481   0.49065   1.00000
Ti16 Ti  -0.25326   0.49616   0.49653   1.00000
Ti17 Ti  -0.00518   0.25739   0.01013   1.00000
Ti18 Ti   0.49437   0.25128   0.00854   1.00000
Ti19 Ti  -0.00751  -0.25728   0.00226   1.00000
Ti20 Ti   0.49590  -0.23975  -0.00389   1.00000
Ti21 Ti  -0.00120   0.25096  -0.48832   1.00000
Ti22 Ti   0.49530   0.26254  -0.49392   1.00000
Ti23 Ti   0.01402  -0.24857   0.49646   1.00000
Ti24 Ti  -0.48532  -0.24735  -0.49432   1.00000
Ti25 Ti   0.25985   0.24647  -0.00140   1.00000
Ti26 Ti  -0.24229   0.25427  -0.00319   1.00000
Ti27 Ti   0.25647  -0.24246   0.00658   1.00000
Ti28 Ti  -0.24500  -0.23484   0.00406   1.00000
Ti29 Ti   0.25352   0.25829  -0.49049   1.00000
Ti30 Ti  -0.24972   0.26316  -0.49954   1.00000
Ti31 Ti   0.24974  -0.24203  -0.49631   1.00000
Ti32 Ti  -0.24858  -0.23585  -0.49885   1.00000
Ti33 Ti   0.00682   0.00513  -0.25362   1.00000
Ti34 Ti   0.49358   0.01056  -0.25153   1.00000
Ti35 Ti  -0.00993  -0.49980  -0.25635   1.00000
Ti36 Ti   0.48779  -0.49990  -0.24484   1.00000
Ti37 Ti  -0.00116  -0.00051   0.26313   1.00000
Ti38 Ti   0.49552  -0.00466   0.24929   1.00000
Ti39 Ti   0.00173  -0.48837   0.25728   1.00000
Ti40 Ti   0.49390  -0.49462   0.24266   1.00000
Ti41 Ti   0.24309   0.00411  -0.26066   1.00000
Ti42 Ti  -0.24662   0.01431  -0.24535   1.00000
Ti43 Ti   0.25266   0.49576  -0.24495   1.00000
Ti44 Ti  -0.24558  -0.48714  -0.24730   1.00000
Ti45 Ti   0.26001   0.00713   0.25279   1.00000
Ti46 Ti  -0.23920  -0.00172   0.25219   1.00000
Ti47 Ti   0.26264   0.49701   0.25342   1.00000
Ti48 Ti  -0.24746  -0.48794   0.24276   1.00000
Ti49 Ti  -0.00676   0.24038  -0.25370   1.00000
Ti50 Ti   0.49207   0.24491  -0.25710   1.00000
Ti51 Ti  -0.00388  -0.26043  -0.25554   1.00000
Ti52 Ti   0.49865  -0.24252  -0.26037   1.00000
Ti53 Ti  -0.00876   0.25609   0.24855   1.00000
Ti54 Ti   0.49172   0.25508   0.24655   1.00000
Ti55 Ti   0.00688  -0.26055   0.24698   1.00000
Ti56 Ti  -0.49231  -0.26127   0.25071   1.00000
Ti57 Ti   0.24568   0.26275  -0.25466   1.00000
Ti58 Ti  -0.25602   0.25264  -0.23635   1.00000
Ti59 Ti   0.25926  -0.24599  -0.25912   1.00000
Ti60 Ti  -0.23907  -0.24872  -0.25037   1.00000
Ti61 Ti   0.25607   0.24151   0.25214   1.00000
Ti62 Ti  -0.24776   0.25566   0.26358   1.00000
Ti63 Ti   0.24349  -0.24865   0.24408   1.00000
Ti64 Ti  -0.25192  -0.26029   0.25428   1.00000
 
# end_of_file
