# CIF file
# This file was generated by FINDSYM
# Harold T. Stokes, Branton J. Campbell, Dorian M. Hatch
# Brigham Young University, Provo, Utah, USA
 
data_findsym-output
 
_symmetry_space_group_name_H-M 'P 1'
_symmetry_Int_Tables_number 1
 
_cell_length_a      15.02000
_cell_length_b      15.02200
_cell_length_c      15.06600
_cell_angle_alpha   90.03300
_cell_angle_beta    90.03400
_cell_angle_gamma   89.32400
 
loop_
_space_group_symop_operation_xyz
x,y,z
 
loop_
_atom_site_label
_atom_site_type_symbol
_atom_site_fract_x
_atom_site_fract_y
_atom_site_fract_z
_atom_site_occupancy
F1  F    0.12915   0.02390  -0.01617   1.00000
F2  F   -0.37586   0.02353  -0.02064   1.00000
F3  F    0.12514  -0.01656   0.47559   1.00000
F4  F   -0.37591  -0.01999   0.47669   1.00000
F5  F    0.12512   0.48358   0.48022   1.00000
F6  F   -0.37573   0.47663   0.48045   1.00000
F7  F    0.37893  -0.02369   0.01937   1.00000
F8  F    0.37663   0.48817   0.01653   1.00000
F9  F   -0.12470   0.49964   0.01977   1.00000
F10 F  -0.12441   0.01224  -0.47953   1.00000
F11 F   0.12852  -0.26185   0.01943   1.00000
F12 F  -0.37505  -0.26618   0.02352   1.00000
F13 F   0.12488   0.27718  -0.48003   1.00000
F14 F  -0.37485   0.26229  -0.47643   1.00000
F15 F   0.12530  -0.23010  -0.49222   1.00000
F16 F  -0.37795  -0.23440  -0.48451   1.00000
F17 F   0.37501   0.26274  -0.01939   1.00000
F18 F  -0.12444   0.25791  -0.01936   1.00000
F19 F  -0.12469  -0.23005  -0.02386   1.00000
F20 F   0.37313   0.22166   0.48421   1.00000
F21 F  -0.12289   0.23417   0.47218   1.00000
F22 F   0.12576  -0.00860  -0.22960   1.00000
F23 F  -0.37546  -0.01199  -0.22667   1.00000
F24 F  -0.37498   0.48353  -0.22673   1.00000
F25 F   0.12885   0.02097   0.26604   1.00000
F26 F  -0.37507   0.00818   0.26589   1.00000
F27 F   0.12542  -0.47281   0.26204   1.00000
F28 F  -0.37443  -0.48047   0.26229   1.00000
F29 F   0.37497  -0.48398  -0.27368   1.00000
F30 F  -0.12534  -0.48040  -0.26981   1.00000
F31 F  -0.37444   0.25850  -0.27024   1.00000
F32 F   0.12529  -0.23361  -0.25794   1.00000
F33 F  -0.37646  -0.24239  -0.26607   1.00000
F34 F   0.12810   0.23827   0.22270   1.00000
F35 F  -0.37385   0.23351   0.22664   1.00000
F36 F   0.12728  -0.26250   0.23022   1.00000
F37 F   0.37380   0.22151  -0.23470   1.00000
F38 F  -0.12220   0.22988  -0.22655   1.00000
F39 F   0.37473   0.27051   0.26975   1.00000
F40 F   0.37540  -0.23033   0.27035   1.00000
F41 F  -0.12541  -0.23007   0.27328   1.00000
F42 F  -0.01571   0.02421  -0.12523   1.00000
F43 F   0.47631   0.01983  -0.12413   1.00000
F44 F  -0.02370  -0.47630  -0.12847   1.00000
F45 F  -0.01934   0.02366   0.37562   1.00000
F46 F   0.48017   0.01594   0.37499   1.00000
F47 F  -0.01233  -0.47966   0.37478   1.00000
F48 F   0.48812  -0.48412   0.37458   1.00000
F49 F  -0.23033  -0.01551  -0.12404   1.00000
F50 F   0.27333  -0.47996  -0.12593   1.00000
F51 F  -0.22657   0.48398  -0.12494   1.00000
F52 F   0.26960   0.01628   0.37575   1.00000
F53 F   0.26177  -0.48421   0.37453   1.00000
F54 F  -0.23776   0.47668   0.37188   1.00000
F55 F   0.01958   0.23416  -0.12607   1.00000
F56 F   0.01621  -0.26558  -0.12478   1.00000
F57 F  -0.47595  -0.27786  -0.12353   1.00000
F58 F   0.02741   0.23741   0.37525   1.00000
F59 F   0.01621  -0.26557   0.37448   1.00000
F60 F  -0.47947  -0.27034   0.37228   1.00000
F61 F   0.23425   0.22690  -0.12514   1.00000
F62 F  -0.26956   0.26576  -0.12465   1.00000
F63 F   0.23323  -0.26547  -0.12138   1.00000
F64 F  -0.27037  -0.23409  -0.12452   1.00000
F65 F  -0.27408   0.26657   0.37417   1.00000
F66 F   0.23419  -0.26565   0.37167   1.00000
F67 F  -0.26992  -0.22638   0.37222   1.00000
F68 F  -0.47567  -0.02441  -0.37556   1.00000
F69 F  -0.47993   0.48059  -0.37461   1.00000
F70 F   0.02791  -0.00777   0.12461   1.00000
F71 F  -0.47595  -0.01979   0.12128   1.00000
F72 F   0.01994   0.49570   0.12282   1.00000
F73 F  -0.48046   0.48422   0.12370   1.00000
F74 F   0.22674  -0.02422  -0.37537   1.00000
F75 F  -0.27426   0.01580  -0.37518   1.00000
F76 F   0.23347  -0.01980   0.12432   1.00000
F77 F  -0.27008   0.02356   0.12477   1.00000
F78 F  -0.26553  -0.47197   0.12475   1.00000
F79 F   0.48023   0.25039  -0.37549   1.00000
F80 F   0.48015  -0.23812  -0.37551   1.00000
F81 F  -0.01977   0.27013   0.12496   1.00000
F82 F   0.48029   0.26622   0.12487   1.00000
F83 F   0.48037  -0.22272   0.12202   1.00000
F84 F   0.27001   0.26556  -0.37539   1.00000
F85 F  -0.24190  -0.27386  -0.37554   1.00000
F86 F   0.26988   0.28095   0.12587   1.00000
F87 F  -0.22583   0.23022   0.12609   1.00000
F88 F  -0.00815   0.12891   0.01590   1.00000
F89 F   0.48054   0.12092   0.01999   1.00000
F90 F  -0.01269  -0.36769   0.01242   1.00000
F91 F   0.48471  -0.37115   0.02342   1.00000
F92 F  -0.48006   0.11764  -0.48739   1.00000
F93 F   0.01941  -0.37495  -0.48365   1.00000
F94 F  -0.48025  -0.37812  -0.48461   1.00000
F95 F  -0.23750   0.12492  -0.01608   1.00000
F96 F   0.26988  -0.37052   0.01608   1.00000
F97 F  -0.23769  -0.37055  -0.01990   1.00000
F98 F   0.22617  -0.37560  -0.48442   1.00000
F99 F  -0.48818   0.37511  -0.01596   1.00000
F100 F  -0.01590   0.37440   0.47598   1.00000
F101 F  -0.01605  -0.12130   0.47628   1.00000
F102 F   0.24199   0.37769  -0.02390   1.00000
F103 F   0.23354  -0.12093  -0.01945   1.00000
F104 F   0.26956   0.37074   0.48378   1.00000
F105 F  -0.23442   0.36985  -0.48819   1.00000
F106 F   0.26596  -0.12495   0.48042   1.00000
F107 F  -0.23828  -0.12508  -0.47697   1.00000
F108 F   0.01967   0.12804  -0.26960   1.00000
F109 F  -0.48427   0.11802  -0.26584   1.00000
F110 F   0.01999  -0.37527  -0.26991   1.00000
F111 F  -0.48403  -0.37892  -0.26968   1.00000
F112 F  -0.00758   0.13164   0.23447   1.00000
F113 F  -0.01561  -0.36817   0.23454   1.00000
F114 F   0.23066   0.12473  -0.27353   1.00000
F115 F  -0.26534   0.12448  -0.23043   1.00000
F116 F   0.23004  -0.37611  -0.26264   1.00000
F117 F  -0.26571  -0.37818  -0.23044   1.00000
F118 F  -0.24171   0.12561   0.26960   1.00000
F119 F   0.26996  -0.37120   0.23411   1.00000
F120 F  -0.23280  -0.37345   0.27403   1.00000
F121 F  -0.02729   0.37604  -0.22616   1.00000
F122 F  -0.01234  -0.12226  -0.22591   1.00000
F123 F  -0.48027   0.37485   0.26213   1.00000
F124 F  -0.48384  -0.12809   0.26623   1.00000
F125 F   0.26168  -0.12516  -0.23002   1.00000
F126 F   0.22935   0.37561   0.26947   1.00000
F127 F   0.23020  -0.12358   0.26963   1.00000
F128 F  -0.26215  -0.12436   0.22619   1.00000
O1  O    0.12615  -0.48030  -0.01957   1.00000
O2  O   -0.37447  -0.48461  -0.01890   1.00000
O3  O   -0.12148  -0.01232   0.02246   1.00000
O4  O    0.37394   0.01523  -0.47587   1.00000
O5  O    0.37355  -0.48558  -0.48399   1.00000
O6  O   -0.12629  -0.48741  -0.48525   1.00000
O7  O    0.12783   0.24574   0.01879   1.00000
O8  O   -0.37488   0.23699   0.02002   1.00000
O9  O    0.37839  -0.23083  -0.02333   1.00000
O10 O   0.37322  -0.27333   0.48217   1.00000
O11 O  -0.12743  -0.26376   0.48457   1.00000
O12 O   0.12334   0.47996  -0.22618   1.00000
O13 O   0.37396   0.00766  -0.27336   1.00000
O14 O  -0.12462   0.01535  -0.26920   1.00000
O15 O   0.37704  -0.02153   0.23275   1.00000
O16 O  -0.12158  -0.00744   0.22781   1.00000
O17 O   0.37490   0.48118   0.23810   1.00000
O18 O  -0.12424   0.48866   0.23409   1.00000
O19 O   0.12464   0.27428  -0.26604   1.00000
O20 O  -0.37252  -0.26697   0.22547   1.00000
O21 O   0.37492  -0.26962  -0.23206   1.00000
O22 O  -0.12521  -0.26550  -0.23641   1.00000
O23 O  -0.12424   0.26681   0.27351   1.00000
O24 O   0.47982  -0.48088  -0.12590   1.00000
O25 O   0.27337   0.02345  -0.12437   1.00000
O26 O  -0.22711  -0.02299   0.37320   1.00000
O27 O  -0.48346   0.22990  -0.12377   1.00000
O28 O  -0.48268   0.23342   0.37472   1.00000
O29 O   0.23043   0.23039   0.37401   1.00000
O30 O   0.01921  -0.02128  -0.37524   1.00000
O31 O   0.01622   0.47633  -0.37453   1.00000
O32 O   0.23352   0.48081  -0.37284   1.00000
O33 O  -0.27360  -0.48769  -0.37560   1.00000
O34 O   0.23345   0.48804   0.12485   1.00000
O35 O  -0.02296   0.26968  -0.37510   1.00000
O36 O  -0.01343  -0.23137  -0.37616   1.00000
O37 O  -0.01611  -0.22635   0.12308   1.00000
O38 O  -0.22675   0.22628  -0.37575   1.00000
O39 O   0.26537  -0.23760  -0.37573   1.00000
O40 O   0.26892  -0.22781   0.12494   1.00000
O41 O  -0.22248  -0.26574   0.12453   1.00000
O42 O   0.01827   0.12700  -0.48079   1.00000
O43 O   0.26985   0.12754   0.02562   1.00000
O44 O   0.22621   0.12410  -0.48021   1.00000
O45 O  -0.26255   0.12120   0.48068   1.00000
O46 O  -0.26841  -0.37687   0.47735   1.00000
O47 O   0.00833   0.38088  -0.01733   1.00000
O48 O   0.02030  -0.11849  -0.01938   1.00000
O49 O  -0.47655  -0.12439  -0.02434   1.00000
O50 O   0.48074   0.36985   0.48803   1.00000
O51 O   0.48069  -0.12805   0.48303   1.00000
O52 O  -0.25827   0.37753   0.01867   1.00000
O53 O  -0.26660  -0.12224   0.01651   1.00000
O54 O   0.48480   0.12351   0.23331   1.00000
O55 O   0.48104  -0.37289   0.22996   1.00000
O56 O   0.27211   0.12675   0.22865   1.00000
O57 O   0.48407   0.37039  -0.23620   1.00000
O58 O   0.48822  -0.12942  -0.23031   1.00000
O59 O   0.01997   0.37926   0.26224   1.00000
O60 O   0.01696  -0.12008   0.26684   1.00000
O61 O   0.27333   0.37197  -0.22883   1.00000
O62 O  -0.23429   0.37188  -0.26521   1.00000
O63 O  -0.23869  -0.12595  -0.26565   1.00000
O64 O  -0.26692   0.37484   0.22583   1.00000
Ti1 Ti  -0.00435  -0.00113  -0.00066   1.00000
Ti2 Ti  -0.49328  -0.01049  -0.00457   1.00000
Ti3 Ti   0.00869  -0.49629  -0.00736   1.00000
Ti4 Ti  -0.49303  -0.49563  -0.01113   1.00000
Ti5 Ti   0.00546   0.00635  -0.48931   1.00000
Ti6 Ti   0.49001  -0.01009  -0.49971   1.00000
Ti7 Ti  -0.01043   0.49850  -0.49198   1.00000
Ti8 Ti   0.48844   0.49241  -0.49707   1.00000
Ti9 Ti   0.25440   0.01586  -0.00592   1.00000
Ti10 Ti  -0.23845  -0.00465   0.00461   1.00000
Ti11 Ti   0.24384  -0.49891   0.00779   1.00000
Ti12 Ti  -0.25463   0.49695  -0.00330   1.00000
Ti13 Ti   0.25666   0.00782  -0.49304   1.00000
Ti14 Ti  -0.25132  -0.00060   0.48682   1.00000
Ti15 Ti   0.25093   0.49520  -0.48792   1.00000
Ti16 Ti  -0.25143  -0.49613  -0.49424   1.00000
Ti17 Ti   0.00736   0.26359  -0.00210   1.00000
Ti18 Ti  -0.49189   0.24460  -0.00294   1.00000
Ti19 Ti   0.00388  -0.23518   0.00224   1.00000
Ti20 Ti   0.49418  -0.24245  -0.00488   1.00000
Ti21 Ti  -0.00062   0.24428  -0.48953   1.00000
Ti22 Ti   0.49913   0.25368   0.49454   1.00000
Ti23 Ti  -0.01208  -0.24774  -0.49932   1.00000
Ti24 Ti   0.48819  -0.24916   0.49553   1.00000
Ti25 Ti   0.24544   0.24604   0.00598   1.00000
Ti26 Ti  -0.25708   0.25881   0.00131   1.00000
Ti27 Ti   0.26017  -0.24227   0.00255   1.00000
Ti28 Ti  -0.24966  -0.24156   0.00968   1.00000
Ti29 Ti   0.24554   0.23809   0.49133   1.00000
Ti30 Ti  -0.24932   0.23650  -0.49174   1.00000
Ti31 Ti   0.25412  -0.25030  -0.49599   1.00000
Ti32 Ti  -0.25080  -0.26207   0.49367   1.00000
Ti33 Ti  -0.00821   0.00160  -0.25944   1.00000
Ti34 Ti   0.49090  -0.01123  -0.25196   1.00000
Ti35 Ti   0.00980   0.49707  -0.25875   1.00000
Ti36 Ti   0.49442   0.49010  -0.24115   1.00000
Ti37 Ti  -0.00091  -0.00352   0.25297   1.00000
Ti38 Ti   0.49551   0.00703   0.24703   1.00000
Ti39 Ti  -0.00458   0.49717   0.25004   1.00000
Ti40 Ti   0.49218  -0.49350   0.24487   1.00000
Ti41 Ti   0.25690   0.00510  -0.24080   1.00000
Ti42 Ti  -0.24620  -0.00756  -0.25521   1.00000
Ti43 Ti   0.24159   0.48938  -0.24899   1.00000
Ti44 Ti  -0.24972   0.49338  -0.26195   1.00000
Ti45 Ti   0.26240   0.00763   0.24533   1.00000
Ti46 Ti  -0.23633  -0.00055   0.25535   1.00000
Ti47 Ti   0.25539   0.49649   0.24554   1.00000
Ti48 Ti  -0.24378   0.49047   0.24694   1.00000
Ti49 Ti   0.00869   0.25622  -0.25924   1.00000
Ti50 Ti   0.49937   0.24949  -0.23962   1.00000
Ti51 Ti  -0.00786  -0.24836  -0.25966   1.00000
Ti52 Ti   0.49185  -0.25012  -0.24849   1.00000
Ti53 Ti  -0.00590   0.26227   0.25489   1.00000
Ti54 Ti  -0.49595   0.24349   0.25740   1.00000
Ti55 Ti  -0.00213  -0.23800   0.24045   1.00000
Ti56 Ti  -0.48939  -0.25815   0.24442   1.00000
Ti57 Ti   0.24627   0.26104  -0.25049   1.00000
Ti58 Ti  -0.24344   0.25280  -0.25903   1.00000
Ti59 Ti   0.25699  -0.25267  -0.25769   1.00000
Ti60 Ti  -0.24338  -0.24687  -0.24857   1.00000
Ti61 Ti   0.24942   0.24054   0.25518   1.00000
Ti62 Ti  -0.24189   0.26123   0.25199   1.00000
Ti63 Ti   0.25432  -0.24443   0.24123   1.00000
Ti64 Ti  -0.25371  -0.25475   0.23849   1.00000
 
# end_of_file
