# CIF file
# This file was generated by FINDSYM
# Harold T. Stokes, Branton J. Campbell, Dorian M. Hatch
# Brigham Young University, Provo, Utah, USA
 
data_findsym-output
 
_symmetry_space_group_name_H-M 'P 1'
_symmetry_Int_Tables_number 1
 
_cell_length_a      15.30200
_cell_length_b      15.38600
_cell_length_c      15.30700
_cell_angle_alpha   89.99200
_cell_angle_beta    90.03300
_cell_angle_gamma   89.96300
 
loop_
_space_group_symop_operation_xyz
x,y,z
 
loop_
_atom_site_label
_atom_site_type_symbol
_atom_site_fract_x
_atom_site_fract_y
_atom_site_fract_z
_atom_site_occupancy
F1  F    0.12712   0.00004  -0.00012   1.00000
F2  F   -0.37658  -0.00018  -0.00458   1.00000
F3  F    0.12527  -0.49225   0.00342   1.00000
F4  F    0.12697   0.00346  -0.49627   1.00000
F5  F   -0.37800  -0.00762   0.49997   1.00000
F6  F    0.12615  -0.49571   0.49968   1.00000
F7  F   -0.37619   0.49987   0.49580   1.00000
F8  F    0.37475   0.49604  -0.00745   1.00000
F9  F   -0.12584   0.49661   0.00046   1.00000
F10 F   0.37736  -0.00775   0.49982   1.00000
F11 F  -0.12545   0.00372   0.48798   1.00000
F12 F   0.12581   0.24563  -0.00432   1.00000
F13 F  -0.37774   0.25794   0.00345   1.00000
F14 F   0.12584   0.24215   0.49572   1.00000
F15 F  -0.37803   0.24995  -0.49252   1.00000
F16 F   0.12629  -0.25066  -0.49577   1.00000
F17 F  -0.12610   0.25066   0.00065   1.00000
F18 F   0.37563  -0.24997   0.00384   1.00000
F19 F  -0.12584  -0.24985  -0.00395   1.00000
F20 F   0.37562   0.25822  -0.49582   1.00000
F21 F  -0.12607   0.24654   0.49608   1.00000
F22 F   0.37500  -0.25011  -0.49580   1.00000
F23 F  -0.12504  -0.24971  -0.49956   1.00000
F24 F   0.12463   0.49612  -0.24644   1.00000
F25 F   0.12750   0.00445   0.25064   1.00000
F26 F  -0.37805  -0.00364   0.25415   1.00000
F27 F   0.37572  -0.00010  -0.25423   1.00000
F28 F  -0.12532  -0.00422  -0.24589   1.00000
F29 F   0.37444  -0.48901  -0.24567   1.00000
F30 F  -0.12488   0.49599  -0.25820   1.00000
F31 F   0.37488  -0.49580   0.25714   1.00000
F32 F  -0.12536  -0.49638   0.25003   1.00000
F33 F   0.12441  -0.24599  -0.25376   1.00000
F34 F  -0.37442  -0.24963  -0.25018   1.00000
F35 F  -0.37771   0.25797   0.24580   1.00000
F36 F   0.12503  -0.25413   0.24577   1.00000
F37 F  -0.37542  -0.25392   0.25028   1.00000
F38 F   0.37454   0.24563  -0.24996   1.00000
F39 F  -0.12486   0.25052  -0.25010   1.00000
F40 F   0.37518   0.24609   0.24159   1.00000
F41 F  -0.12532   0.24654   0.25026   1.00000
F42 F   0.00016   0.00043  -0.12524   1.00000
F43 F   0.49645   0.00798  -0.12511   1.00000
F44 F   0.49563  -0.49977  -0.12437   1.00000
F45 F   0.00756  -0.00033   0.37475   1.00000
F46 F   0.49971  -0.01210   0.37551   1.00000
F47 F  -0.49995   0.49628   0.37468   1.00000
F48 F  -0.25033   0.00018  -0.12510   1.00000
F49 F   0.24607  -0.49555  -0.12451   1.00000
F50 F  -0.23865   0.49571  -0.12508   1.00000
F51 F  -0.25776  -0.00400   0.37463   1.00000
F52 F   0.24640   0.49627   0.37460   1.00000
F53 F  -0.24632   0.49603   0.37457   1.00000
F54 F  -0.00352   0.24989  -0.12482   1.00000
F55 F  -0.49979   0.24269  -0.12344   1.00000
F56 F   0.00040  -0.25354  -0.12533   1.00000
F57 F   0.49642  -0.25381  -0.12457   1.00000
F58 F  -0.00357   0.24988   0.37487   1.00000
F59 F   0.25361   0.23874  -0.12477   1.00000
F60 F  -0.25016  -0.24659  -0.12511   1.00000
F61 F  -0.24995  -0.24665   0.37518   1.00000
F62 F   0.49981   0.00368  -0.37820   1.00000
F63 F   0.00742   0.49619  -0.37398   1.00000
F64 F  -0.48901   0.00086   0.12504   1.00000
F65 F  -0.00369   0.49941   0.12511   1.00000
F66 F   0.25404  -0.00362  -0.37838   1.00000
F67 F  -0.25742   0.49627  -0.37477   1.00000
F68 F   0.24657  -0.00011   0.12629   1.00000
F69 F  -0.25820  -0.00775   0.12591   1.00000
F70 F   0.49581   0.24575  -0.37866   1.00000
F71 F   0.00003  -0.24567  -0.37560   1.00000
F72 F  -0.49968  -0.25401  -0.37613   1.00000
F73 F  -0.49672   0.25403   0.12514   1.00000
F74 F  -0.00358  -0.24666   0.12564   1.00000
F75 F  -0.49682  -0.25424   0.12555   1.00000
F76 F   0.24998   0.25373  -0.37797   1.00000
F77 F  -0.24626   0.24968  -0.37797   1.00000
F78 F   0.24939  -0.25356  -0.37725   1.00000
F79 F  -0.24984  -0.24262  -0.37533   1.00000
F80 F   0.24613   0.25329   0.12488   1.00000
F81 F  -0.25017   0.25413   0.12550   1.00000
F82 F   0.24989  -0.25368   0.12600   1.00000
F83 F   0.00036   0.12511  -0.00377   1.00000
F84 F  -0.49234   0.12742   0.00721   1.00000
F85 F  -0.00394  -0.37552   0.00395   1.00000
F86 F   0.49252  -0.37546  -0.00027   1.00000
F87 F   0.00004   0.12234   0.49582   1.00000
F88 F   0.00014  -0.37383  -0.49238   1.00000
F89 F   0.49950  -0.37350   0.49605   1.00000
F90 F   0.24633   0.12547   0.00439   1.00000
F91 F   0.25700  -0.37538  -0.00022   1.00000
F92 F  -0.24578  -0.37566  -0.00858   1.00000
F93 F   0.25321  -0.37480   0.49614   1.00000
F94 F   0.49650   0.37390  -0.00388   1.00000
F95 F  -0.49607   0.37231  -0.49618   1.00000
F96 F   0.49615  -0.12425  -0.49202   1.00000
F97 F  -0.24962   0.37588   0.00358   1.00000
F98 F   0.25352  -0.12452   0.00420   1.00000
F99 F  -0.25369  -0.12547  -0.00020   1.00000
F100 F   0.24246   0.37209   0.49980   1.00000
F101 F  -0.25368   0.37401  -0.49976   1.00000
F102 F   0.24965  -0.12533  -0.49654   1.00000
F103 F  -0.24601  -0.12241   0.49650   1.00000
F104 F  -0.00714   0.12469  -0.24623   1.00000
F105 F   0.49631   0.12464  -0.25354   1.00000
F106 F  -0.49602  -0.37399  -0.24950   1.00000
F107 F   0.00007   0.12561   0.25760   1.00000
F108 F   0.00030  -0.37467   0.24207   1.00000
F109 F   0.49986  -0.37464   0.25375   1.00000
F110 F   0.25395   0.12462  -0.25798   1.00000
F111 F  -0.24256   0.12468  -0.25012   1.00000
F112 F   0.24197  -0.37496  -0.24981   1.00000
F113 F   0.25040   0.12596   0.24568   1.00000
F114 F   0.24969  -0.37525   0.25388   1.00000
F115 F  -0.25003  -0.37478   0.25833   1.00000
F116 F  -0.00027   0.37445  -0.25001   1.00000
F117 F   0.00355  -0.12481  -0.24616   1.00000
F118 F  -0.00812   0.37449   0.25008   1.00000
F119 F   0.49221   0.37374   0.24935   1.00000
F120 F   0.01092  -0.12513   0.25051   1.00000
F121 F  -0.49609  -0.12536   0.24197   1.00000
F122 F  -0.24583   0.37467  -0.25366   1.00000
F123 F   0.24991  -0.12448  -0.25449   1.00000
F124 F  -0.25379  -0.12457  -0.24653   1.00000
F125 F   0.26123   0.37411   0.24965   1.00000
F126 F  -0.24574   0.37530   0.24631   1.00000
F127 F   0.24251  -0.12521   0.24580   1.00000
F128 F  -0.25734  -0.12631   0.24991   1.00000
O1  O   -0.37555  -0.49906  -0.00441   1.00000
O2  O    0.37685   0.00437   0.00482   1.00000
O3  O   -0.12756   0.00126   0.00330   1.00000
O4  O    0.37529   0.49559   0.49941   1.00000
O5  O   -0.12491   0.49930  -0.49573   1.00000
O6  O    0.12553  -0.25125   0.00015   1.00000
O7  O   -0.37588  -0.25457  -0.00114   1.00000
O8  O   -0.37473  -0.24635  -0.49982   1.00000
O9  O    0.37510   0.24674   0.00348   1.00000
O10 O   0.12478   0.00395  -0.25315   1.00000
O11 O  -0.37486   0.00371  -0.25195   1.00000
O12 O  -0.37436   0.49642  -0.24184   1.00000
O13 O   0.12518   0.49482   0.24633   1.00000
O14 O  -0.37607   0.49671   0.25084   1.00000
O15 O   0.37651  -0.00264   0.24657   1.00000
O16 O  -0.12626  -0.00346   0.25320   1.00000
O17 O   0.12546   0.24852  -0.24960   1.00000
O18 O  -0.37527   0.24832  -0.25393   1.00000
O19 O   0.12537   0.25522   0.25440   1.00000
O20 O   0.37411  -0.25177  -0.25347   1.00000
O21 O  -0.12564  -0.24693  -0.25073   1.00000
O22 O   0.37506  -0.24708   0.24889   1.00000
O23 O  -0.12342  -0.24579   0.25175   1.00000
O24 O  -0.00250  -0.49817  -0.12489   1.00000
O25 O   0.00023  -0.49549   0.37360   1.00000
O26 O   0.25320   0.00054  -0.12583   1.00000
O27 O   0.25299  -0.00108   0.37452   1.00000
O28 O   0.49898   0.25360   0.37479   1.00000
O29 O   0.00377  -0.25452   0.37511   1.00000
O30 O   0.49905  -0.24247   0.37532   1.00000
O31 O  -0.25365   0.25057  -0.12453   1.00000
O32 O   0.25009  -0.24728  -0.12676   1.00000
O33 O   0.25735   0.24922   0.37441   1.00000
O34 O  -0.25605   0.25052   0.37375   1.00000
O35 O   0.24967  -0.24623   0.37592   1.00000
O36 O  -0.00524  -0.00011  -0.37580   1.00000
O37 O  -0.49914  -0.49902  -0.37448   1.00000
O38 O   0.00043   0.00369   0.12801   1.00000
O39 O   0.49618   0.49950   0.12499   1.00000
O40 O  -0.24629  -0.00078  -0.37592   1.00000
O41 O   0.25035   0.49871  -0.37345   1.00000
O42 O   0.25467   0.49929   0.12451   1.00000
O43 O  -0.25027  -0.49245   0.12471   1.00000
O44 O   0.00032   0.24698  -0.37745   1.00000
O45 O   0.00244   0.24655   0.12503   1.00000
O46 O  -0.24926  -0.25453   0.12484   1.00000
O47 O   0.49695   0.12317   0.49234   1.00000
O48 O  -0.25431   0.12578   0.00374   1.00000
O49 O   0.25851   0.12480  -0.49967   1.00000
O50 O  -0.25668   0.12259   0.49671   1.00000
O51 O  -0.25128  -0.37557  -0.49946   1.00000
O52 O   0.00425   0.37541   0.00062   1.00000
O53 O   0.00073  -0.12340  -0.00032   1.00000
O54 O   0.49952  -0.12534  -0.00089   1.00000
O55 O   0.00360   0.37503   0.49903   1.00000
O56 O   0.00061  -0.12405   0.49656   1.00000
O57 O   0.24681   0.37410  -0.00438   1.00000
O58 O  -0.00039  -0.37504  -0.25352   1.00000
O59 O  -0.49863   0.12485   0.25360   1.00000
O60 O  -0.24951  -0.37556  -0.25050   1.00000
O61 O  -0.25380   0.12401   0.24719   1.00000
O62 O   0.49560   0.37179  -0.25000   1.00000
O63 O  -0.49937  -0.12472  -0.24954   1.00000
O64 O   0.25404   0.37425  -0.24555   1.00000
Ti1 Ti  -0.00600  -0.00206   0.00649   1.00000
Ti2 Ti   0.49290  -0.00989  -0.00045   1.00000
Ti3 Ti  -0.00260   0.49860  -0.00791   1.00000
Ti4 Ti  -0.49261  -0.49729   0.00795   1.00000
Ti5 Ti  -0.00058  -0.00329  -0.49207   1.00000
Ti6 Ti   0.49988   0.01073   0.49884   1.00000
Ti7 Ti  -0.00289   0.49827   0.49447   1.00000
Ti8 Ti   0.49572  -0.49984  -0.48986   1.00000
Ti9 Ti   0.25659   0.00301  -0.00836   1.00000
Ti10 Ti  -0.24250   0.00819  -0.00047   1.00000
Ti11 Ti   0.25199   0.49478   0.00837   1.00000
Ti12 Ti  -0.25888   0.49861   0.00884   1.00000
Ti13 Ti   0.25034   0.00879   0.49261   1.00000
Ti14 Ti  -0.24861   0.00273  -0.49050   1.00000
Ti15 Ti   0.25916   0.49682  -0.49147   1.00000
Ti16 Ti  -0.23963  -0.49880   0.49895   1.00000
Ti17 Ti   0.00001   0.26174   0.00075   1.00000
Ti18 Ti   0.48854   0.24785   0.00064   1.00000
Ti19 Ti   0.00564  -0.23752   0.00219   1.00000
Ti20 Ti  -0.49374  -0.24262   0.00224   1.00000
Ti21 Ti  -0.00043   0.26197  -0.49749   1.00000
Ti22 Ti   0.49949   0.24675   0.48959   1.00000
Ti23 Ti  -0.00055  -0.23921   0.49290   1.00000
Ti24 Ti  -0.48857  -0.24645   0.49373   1.00000
Ti25 Ti   0.25368   0.26069  -0.00034   1.00000
Ti26 Ti  -0.25426   0.24067  -0.00661   1.00000
Ti27 Ti   0.24151  -0.25086  -0.00882   1.00000
Ti28 Ti  -0.25761  -0.24895   0.00825   1.00000
Ti29 Ti   0.25009   0.24132   0.49012   1.00000
Ti30 Ti  -0.25069   0.23814   0.49295   1.00000
Ti31 Ti   0.25264  -0.24878   0.49067   1.00000
Ti32 Ti  -0.25573  -0.26234   0.49847   1.00000
Ti33 Ti   0.00584  -0.00134  -0.25514   1.00000
Ti34 Ti  -0.49471  -0.00990  -0.24958   1.00000
Ti35 Ti  -0.00253  -0.49059  -0.24458   1.00000
Ti36 Ti  -0.49396   0.49035  -0.25333   1.00000
Ti37 Ti  -0.00597   0.00000   0.24303   1.00000
Ti38 Ti   0.49390   0.00688   0.24809   1.00000
Ti39 Ti   0.00388  -0.49962   0.25747   1.00000
Ti40 Ti  -0.49556   0.49728   0.24503   1.00000
Ti41 Ti   0.24241   0.00196  -0.24466   1.00000
Ti42 Ti  -0.25827  -0.00222  -0.25630   1.00000
Ti43 Ti   0.25175   0.49055  -0.25534   1.00000
Ti44 Ti  -0.26047  -0.49353  -0.24716   1.00000
Ti45 Ti   0.25639  -0.00072   0.25499   1.00000
Ti46 Ti  -0.24271   0.00679   0.25221   1.00000
Ti47 Ti   0.24085   0.49940   0.24506   1.00000
Ti48 Ti  -0.25909   0.49797   0.24191   1.00000
Ti49 Ti   0.00457   0.25150  -0.26180   1.00000
Ti50 Ti  -0.49456   0.25484  -0.25417   1.00000
Ti51 Ti  -0.00959  -0.25795  -0.25155   1.00000
Ti52 Ti   0.48949  -0.24722  -0.25153   1.00000
Ti53 Ti   0.00528   0.24963   0.23831   1.00000
Ti54 Ti   0.49735   0.24079   0.25584   1.00000
Ti55 Ti  -0.00386  -0.25016   0.25960   1.00000
Ti56 Ti   0.49670  -0.24823   0.26017   1.00000
Ti57 Ti   0.24154   0.25786  -0.25254   1.00000
Ti58 Ti  -0.25775   0.25138  -0.24288   1.00000
Ti59 Ti   0.25335  -0.25258  -0.24438   1.00000
Ti60 Ti  -0.24517  -0.26009  -0.24799   1.00000
Ti61 Ti   0.23915   0.25098   0.25732   1.00000
Ti62 Ti  -0.25001   0.24015   0.25666   1.00000
Ti63 Ti   0.26004  -0.25012   0.25279   1.00000
Ti64 Ti  -0.24003  -0.24866   0.24190   1.00000
 
# end_of_file
