# CIF file
# This file was generated by FINDSYM
# Harold T. Stokes, Branton J. Campbell, Dorian M. Hatch
# Brigham Young University, Provo, Utah, USA
 
data_findsym-output
 
_symmetry_space_group_name_H-M 'P 1'
_symmetry_Int_Tables_number 1
 
_cell_length_a      15.34300
_cell_length_b      15.26300
_cell_length_c      15.40900
_cell_angle_alpha   89.94800
_cell_angle_beta    90.00100
_cell_angle_gamma   90.04200
 
loop_
_space_group_symop_operation_xyz
x,y,z
 
loop_
_atom_site_label
_atom_site_type_symbol
_atom_site_fract_x
_atom_site_fract_y
_atom_site_fract_z
_atom_site_occupancy
F1  F   -0.37476   0.00408  -0.00820   1.00000
F2  F    0.12526   0.49243  -0.00408   1.00000
F3  F   -0.37371   0.49979   0.00340   1.00000
F4  F    0.12505  -0.49629   0.49634   1.00000
F5  F   -0.37522   0.49643   0.49946   1.00000
F6  F    0.37444  -0.00012  -0.00003   1.00000
F7  F   -0.12495  -0.00842   0.00027   1.00000
F8  F    0.37432  -0.49641  -0.00728   1.00000
F9  F    0.37473   0.00403  -0.49984   1.00000
F10 F  -0.12209  -0.00007   0.50000   1.00000
F11 F   0.37417  -0.49597   0.49614   1.00000
F12 F   0.12494  -0.24242   0.00443   1.00000
F13 F  -0.37440  -0.25010  -0.00015   1.00000
F14 F  -0.37477   0.24991  -0.49190   1.00000
F15 F  -0.37396  -0.24623   0.49973   1.00000
F16 F   0.37394   0.25053  -0.00015   1.00000
F17 F  -0.12462   0.25817  -0.00010   1.00000
F18 F   0.37468   0.24626  -0.49994   1.00000
F19 F  -0.12248   0.25823   0.49971   1.00000
F20 F   0.37321  -0.25738  -0.49222   1.00000
F21 F  -0.12301  -0.25002   0.49943   1.00000
F22 F   0.12479  -0.49656  -0.24621   1.00000
F23 F  -0.37524  -0.49628  -0.25057   1.00000
F24 F  -0.37518   0.00369   0.25815   1.00000
F25 F   0.12539   0.49196   0.25393   1.00000
F26 F   0.37405  -0.00099  -0.25001   1.00000
F27 F  -0.12501   0.00337  -0.25015   1.00000
F28 F   0.37502  -0.49215  -0.24572   1.00000
F29 F  -0.12550  -0.49256  -0.25389   1.00000
F30 F   0.37544  -0.00438   0.24975   1.00000
F31 F  -0.12464   0.00347   0.24984   1.00000
F32 F   0.37502   0.49579   0.25428   1.00000
F33 F  -0.12481   0.49943   0.25004   1.00000
F34 F   0.12421  -0.25380  -0.25811   1.00000
F35 F  -0.37548  -0.24955  -0.25390   1.00000
F36 F  -0.37587   0.24635   0.24196   1.00000
F37 F   0.37426   0.24988  -0.24998   1.00000
F38 F  -0.12430   0.24683  -0.25012   1.00000
F39 F  -0.12457  -0.25414  -0.24700   1.00000
F40 F   0.37529   0.25438   0.25010   1.00000
F41 F  -0.12488   0.25030   0.25034   1.00000
F42 F   0.37492  -0.24565   0.24621   1.00000
F43 F  -0.12159  -0.24965   0.25009   1.00000
F44 F  -0.00378   0.00046  -0.12380   1.00000
F45 F   0.49651   0.00022  -0.12706   1.00000
F46 F  -0.00019  -0.49586  -0.12497   1.00000
F47 F  -0.49626  -0.49581  -0.12522   1.00000
F48 F  -0.00323   0.00045   0.37523   1.00000
F49 F   0.49622  -0.00053   0.37490   1.00000
F50 F   0.00025   0.49597   0.37617   1.00000
F51 F  -0.49997  -0.49971   0.37545   1.00000
F52 F   0.25355   0.00059  -0.12464   1.00000
F53 F  -0.24637   0.00336  -0.12520   1.00000
F54 F   0.24984  -0.49999  -0.12773   1.00000
F55 F   0.25361   0.00051   0.37475   1.00000
F56 F  -0.24624   0.00372   0.37525   1.00000
F57 F   0.24984   0.49966   0.37450   1.00000
F58 F  -0.25025   0.49608   0.37529   1.00000
F59 F  -0.00334   0.24634  -0.12412   1.00000
F60 F   0.49628   0.24271  -0.12544   1.00000
F61 F  -0.00359   0.24995   0.37527   1.00000
F62 F  -0.00372  -0.24623   0.37591   1.00000
F63 F   0.25011   0.24660  -0.12458   1.00000
F64 F  -0.24634   0.25366  -0.12482   1.00000
F65 F   0.23866  -0.24652  -0.12591   1.00000
F66 F  -0.25354  -0.25410  -0.12835   1.00000
F67 F   0.25359   0.24626   0.37503   1.00000
F68 F   0.25812  -0.24584   0.37579   1.00000
F69 F  -0.24628  -0.25022   0.37579   1.00000
F70 F  -0.00314   0.01165  -0.37550   1.00000
F71 F   0.49623   0.00385  -0.37434   1.00000
F72 F  -0.00368  -0.00724   0.12528   1.00000
F73 F   0.25335   0.01077  -0.37504   1.00000
F74 F  -0.24625  -0.00045  -0.37483   1.00000
F75 F  -0.25385  -0.49961  -0.37463   1.00000
F76 F   0.25356  -0.00760   0.12512   1.00000
F77 F  -0.24939  -0.49532   0.12465   1.00000
F78 F  -0.00345   0.24627  -0.37672   1.00000
F79 F   0.49607   0.24626  -0.37453   1.00000
F80 F  -0.00353  -0.25803  -0.37743   1.00000
F81 F  -0.49680  -0.25368  -0.37513   1.00000
F82 F  -0.00379   0.26130   0.12519   1.00000
F83 F   0.49655   0.25041   0.12476   1.00000
F84 F   0.00032  -0.24608   0.12536   1.00000
F85 F   0.49976  -0.25044   0.12513   1.00000
F86 F   0.25050   0.24217  -0.37570   1.00000
F87 F  -0.24641   0.24991  -0.37467   1.00000
F88 F   0.24675  -0.25789  -0.37576   1.00000
F89 F   0.25351   0.26087   0.12554   1.00000
F90 F  -0.24596   0.24647   0.12515   1.00000
F91 F   0.24954  -0.23867   0.12522   1.00000
F92 F   0.49626   0.12519  -0.00033   1.00000
F93 F   0.00821  -0.37400   0.00350   1.00000
F94 F  -0.49648  -0.37522   0.00008   1.00000
F95 F  -0.00811   0.12661   0.49568   1.00000
F96 F   0.49996   0.12570  -0.49956   1.00000
F97 F  -0.00386  -0.37494   0.49250   1.00000
F98 F  -0.49592  -0.37556  -0.49996   1.00000
F99 F  -0.25411  -0.37562  -0.00026   1.00000
F100 F   0.25418   0.12530   0.49587   1.00000
F101 F   0.25034  -0.37466   0.49257   1.00000
F102 F  -0.00045   0.37488  -0.00794   1.00000
F103 F  -0.00018  -0.12198   0.00032   1.00000
F104 F   0.00741   0.37292   0.49992   1.00000
F105 F   0.25387   0.37462  -0.00476   1.00000
F106 F  -0.25021   0.37566   0.00752   1.00000
F107 F   0.25040  -0.12130  -0.00396   1.00000
F108 F  -0.25399  -0.12424  -0.00799   1.00000
F109 F  -0.25406   0.37478  -0.49580   1.00000
F110 F  -0.24613  -0.12416   0.49659   1.00000
F111 F  -0.00365   0.12538  -0.24642   1.00000
F112 F   0.49259   0.12462  -0.25003   1.00000
F113 F  -0.00025  -0.37491  -0.25009   1.00000
F114 F  -0.49641  -0.37527  -0.24983   1.00000
F115 F   0.48820  -0.37556   0.25007   1.00000
F116 F   0.25406   0.12578  -0.24617   1.00000
F117 F  -0.24644   0.12593  -0.24991   1.00000
F118 F   0.24630  -0.37404  -0.24604   1.00000
F119 F  -0.25321  -0.37557  -0.25040   1.00000
F120 F  -0.25006   0.12617   0.25001   1.00000
F121 F  -0.24202  -0.37572   0.25395   1.00000
F122 F  -0.49978  -0.12345  -0.25419   1.00000
F123 F  -0.00383   0.37395   0.25426   1.00000
F124 F  -0.49629   0.37434   0.24984   1.00000
F125 F  -0.00426  -0.12165   0.25363   1.00000
F126 F  -0.49631  -0.12417   0.25061   1.00000
F127 F   0.25365   0.37207   0.25754   1.00000
F128 F   0.25384  -0.12200   0.25413   1.00000
O1  O    0.12409   0.00350   0.00006   1.00000
O2  O    0.12422   0.00687   0.49961   1.00000
O3  O   -0.37580   0.00022  -0.49985   1.00000
O4  O   -0.12450  -0.49622   0.00016   1.00000
O5  O   -0.12517   0.49551  -0.49853   1.00000
O6  O    0.12501   0.24961   0.00177   1.00000
O7  O   -0.37262   0.24739  -0.00011   1.00000
O8  O    0.12477   0.24469   0.49929   1.00000
O9  O    0.12552  -0.25340   0.49656   1.00000
O10 O   0.37128  -0.25148  -0.00308   1.00000
O11 O  -0.12511  -0.25078  -0.00331   1.00000
O12 O   0.12623   0.00396  -0.24963   1.00000
O13 O  -0.37501   0.00386  -0.25033   1.00000
O14 O   0.12552  -0.00007   0.24996   1.00000
O15 O  -0.37593  -0.49306   0.24765   1.00000
O16 O   0.12305   0.24926  -0.25062   1.00000
O17 O  -0.37732   0.24694  -0.25001   1.00000
O18 O   0.12472   0.25085   0.24998   1.00000
O19 O   0.12534  -0.24525   0.25388   1.00000
O20 O  -0.37729  -0.25613   0.25332   1.00000
O21 O   0.37354  -0.25067  -0.24964   1.00000
O22 O  -0.24988   0.49648  -0.12445   1.00000
O23 O   0.00449  -0.24657  -0.12550   1.00000
O24 O  -0.49970  -0.24938  -0.12610   1.00000
O25 O  -0.49564   0.25005   0.37492   1.00000
O26 O   0.49578  -0.24983   0.37781   1.00000
O27 O  -0.25362   0.25291   0.37530   1.00000
O28 O   0.00388  -0.49977  -0.37736   1.00000
O29 O   0.49688   0.49984  -0.37575   1.00000
O30 O  -0.49543   0.00020   0.12502   1.00000
O31 O   0.00311   0.49607   0.12296   1.00000
O32 O   0.49609   0.49877   0.12267   1.00000
O33 O   0.24980  -0.49595  -0.37445   1.00000
O34 O  -0.25423  -0.00118   0.12477   1.00000
O35 O   0.25018   0.49572   0.12727   1.00000
O36 O  -0.24673  -0.24963  -0.37441   1.00000
O37 O  -0.24946  -0.24915   0.12540   1.00000
O38 O  -0.00737   0.12557   0.00740   1.00000
O39 O   0.25294   0.12490   0.00680   1.00000
O40 O  -0.24233   0.12434  -0.00089   1.00000
O41 O   0.24414  -0.37555   0.00340   1.00000
O42 O  -0.24679   0.12682  -0.49945   1.00000
O43 O  -0.25004  -0.37587   0.49972   1.00000
O44 O  -0.49971   0.37358  -0.00438   1.00000
O45 O  -0.49952  -0.12470   0.00010   1.00000
O46 O   0.49643   0.37382  -0.49935   1.00000
O47 O   0.00278  -0.12467  -0.49317   1.00000
O48 O   0.49588  -0.12550  -0.49645   1.00000
O49 O   0.24968   0.37451  -0.49876   1.00000
O50 O   0.25027  -0.12291  -0.49528   1.00000
O51 O  -0.00074   0.12533   0.24570   1.00000
O52 O   0.49568   0.12502   0.25021   1.00000
O53 O   0.00384  -0.37675   0.24977   1.00000
O54 O   0.25422   0.12577   0.24519   1.00000
O55 O   0.24975  -0.37304   0.24888   1.00000
O56 O  -0.00324   0.37572  -0.25002   1.00000
O57 O   0.49863   0.37566  -0.24792   1.00000
O58 O   0.00004  -0.12303  -0.25511   1.00000
O59 O   0.25063   0.37399  -0.25300   1.00000
O60 O  -0.24954   0.37483  -0.25114   1.00000
O61 O   0.24709  -0.12555  -0.25529   1.00000
O62 O  -0.24932  -0.12502  -0.24739   1.00000
O63 O  -0.25365   0.37476   0.24614   1.00000
O64 O  -0.25094  -0.12421   0.25298   1.00000
Ti1 Ti   0.00611   0.01052   0.00037   1.00000
Ti2 Ti   0.49808  -0.01120   0.00618   1.00000
Ti3 Ti  -0.00890   0.49990   0.00241   1.00000
Ti4 Ti  -0.49889   0.48966   0.00160   1.00000
Ti5 Ti   0.00323  -0.01026  -0.49849   1.00000
Ti6 Ti  -0.49704  -0.00939   0.49721   1.00000
Ti7 Ti  -0.01119  -0.49892  -0.49880   1.00000
Ti8 Ti  -0.49961   0.49065  -0.49837   1.00000
Ti9 Ti   0.24064   0.00434  -0.00001   1.00000
Ti10 Ti  -0.24902   0.00627   0.01113   1.00000
Ti11 Ti   0.24782  -0.49666   0.01313   1.00000
Ti12 Ti  -0.24250   0.49820  -0.00916   1.00000
Ti13 Ti   0.23988  -0.00101  -0.49934   1.00000
Ti14 Ti  -0.26067   0.00742   0.49893   1.00000
Ti15 Ti   0.24726  -0.49926  -0.48826   1.00000
Ti16 Ti  -0.24437  -0.49178  -0.49842   1.00000
Ti17 Ti   0.01034   0.24424   0.00058   1.00000
Ti18 Ti  -0.48831   0.25301   0.00093   1.00000
Ti19 Ti  -0.01099  -0.24649  -0.00798   1.00000
Ti20 Ti   0.48893  -0.24820  -0.00235   1.00000
Ti21 Ti   0.01234   0.24694   0.49984   1.00000
Ti22 Ti  -0.49893   0.25420   0.49019   1.00000
Ti23 Ti   0.01045  -0.24427  -0.49816   1.00000
Ti24 Ti   0.49826  -0.24567   0.49616   1.00000
Ti25 Ti   0.24852   0.24101   0.00057   1.00000
Ti26 Ti  -0.25211   0.23962   0.00226   1.00000
Ti27 Ti   0.25272  -0.26021   0.00013   1.00000
Ti28 Ti  -0.24838  -0.24856   0.01233   1.00000
Ti29 Ti   0.24731   0.26149  -0.49984   1.00000
Ti30 Ti  -0.24596   0.24373   0.49218   1.00000
Ti31 Ti   0.24369  -0.23845   0.49998   1.00000
Ti32 Ti  -0.24676  -0.25501  -0.48996   1.00000
Ti33 Ti   0.01144  -0.00396  -0.25044   1.00000
Ti34 Ti  -0.48782   0.00349  -0.24970   1.00000
Ti35 Ti   0.00014   0.49764  -0.26310   1.00000
Ti36 Ti   0.49965   0.49435  -0.26218   1.00000
Ti37 Ti   0.01019   0.00300   0.25010   1.00000
Ti38 Ti   0.49974   0.00673   0.23866   1.00000
Ti39 Ti  -0.00176  -0.49750   0.23762   1.00000
Ti40 Ti  -0.49339   0.49879   0.23665   1.00000
Ti41 Ti   0.24761  -0.01052  -0.25084   1.00000
Ti42 Ti  -0.25020  -0.00945  -0.24688   1.00000
Ti43 Ti   0.25017   0.48943  -0.25167   1.00000
Ti44 Ti  -0.25031   0.48979  -0.24186   1.00000
Ti45 Ti   0.24470   0.00998   0.24975   1.00000
Ti46 Ti  -0.24763  -0.01002   0.24453   1.00000
Ti47 Ti   0.25178  -0.48897   0.24857   1.00000
Ti48 Ti  -0.26070   0.49312   0.24729   1.00000
Ti49 Ti   0.00063   0.25992  -0.24903   1.00000
Ti50 Ti  -0.49829   0.26008  -0.25182   1.00000
Ti51 Ti   0.00291  -0.24058  -0.24000   1.00000
Ti52 Ti   0.49411  -0.25137  -0.23847   1.00000
Ti53 Ti   0.00574   0.24073   0.24879   1.00000
Ti54 Ti   0.49754   0.24049   0.25753   1.00000
Ti55 Ti   0.00361  -0.26118   0.24830   1.00000
Ti56 Ti  -0.49583  -0.24970   0.26093   1.00000
Ti57 Ti   0.23795   0.25212  -0.25004   1.00000
Ti58 Ti  -0.26223   0.25306  -0.25194   1.00000
Ti59 Ti   0.25985  -0.24766  -0.24985   1.00000
Ti60 Ti  -0.25122  -0.24633  -0.25413   1.00000
Ti61 Ti   0.23999   0.24750   0.24967   1.00000
Ti62 Ti  -0.24987   0.25651   0.25933   1.00000
Ti63 Ti   0.24019  -0.25186   0.24957   1.00000
Ti64 Ti  -0.26024  -0.24706   0.24863   1.00000
 
# end_of_file
